Circuit: * ADG884 MACROMODEL

Fatal Error: No analysis request found.
